units		metal
boundary 	p p s
read_data	input1.data.gz
  orthogonal box = (-70.5795 -61.1236 2.50078) to (80.8507 70.0186 186.004)
  reading atoms ...
  324000 atoms
  reading velocities ...
  324000 velocities

#mass  1          59.254250 # AAtom
#mass 1          63.546000 # Cu
mass 1          58.693000 # Ni
#mass 3          58.933000 # Co
#mass 4          55.845000 # Fe

## Potential
pair_style              eam/alloy
pair_coeff              * * /home/utt/potentials/FeCoCrNiCu.set.alloy Ni

thermo          20
thermo_style    custom step pe enthalpy press lx ly lz vol pxx pyy pzz pxy pxz pyz fmax
thermo_modify   flush yes

label loop1
    variable loopvar loop 5
        min_style       cg
        minimize        0.0 1e-6 10000 10000
Last active /omp style is pair_style eam/alloy/omp
  update every 1 steps, delay 0 steps, check yes
Step PotEng Enthalpy Press Lx Ly Lz Volume Pxx Pyy Pzz Pxy Pxz Pyz Fmax
0   -1434034.9   -1593046.4   -69910.558    151.43018    131.14223    183.50216    3644149.4   -70104.282   -70103.726   -69523.666 -5.5764797e-09 1.2531962e-08   -1.3416743   0.19071022
Loop time of 26.2555 on 32 procs for 191 steps with 324000 atoms

Minimization stats:
  Stopping criterion = linesearch alpha is zero
  Energy initial, next-to-last, final =
  Force two-norm initial, final = 16.753 0.00282833
  Force max component initial, final = 0.19071 1.33178e-05
  Final line search alpha, max atom move = 0.000976562 1.30056e-08
  Iterations, force evaluations = 191 401

        fix             3 all box/relax x 0.0 y 0.0
        min_style       cg
        minimize        0.0 1e-6 10000 10000
Last active /omp style is pair_style eam/alloy/omp
Step PotEng Enthalpy Press Lx Ly Lz Volume Pxx Pyy Pzz Pxy Pxz Pyz Fmax
191   -1435838.7   -1512105.4   -34289.284    151.43018    131.14223    179.44527      3563584   -51428.753   -51427.601   -11.497374 -6.7005899e-09 1.4229815e-08  -0.56513303 1.331778e-05
Averages over the last 128 of 256 rows, steps 2740 to 5270:
PotEng Enthalpy Press Lx Ly Lz Volume Pxx Pyy Pzz Pxy Pxz Pyz Fmax
-1.4373e+06 -1.42589e+06 5263.86 149.478 129.452 179.445 3.4723e+06 0.732174 2.39833 15788.5 1.33221e-08 -2.69541e-08 -0.430007 0.0963854
Loop time of 665.718 on 32 procs for 5079 steps with 324000 atoms

Minimization stats:
  Stopping criterion = max force evaluations
  Energy initial, next-to-last, final =
  Force two-norm initial, final = 161788 358.651
  Force max component initial, final = 114403 350.492
  Final line search alpha, max atom move = 5.0126e-07 0.000175688
  Iterations, force evaluations = 5079 10001

        unfix           3
        next loopvar
    jump SELF loop1
    variable loopvar loop 5
        min_style       cg
        minimize        0.0 1e-6 10000 10000
Last active /omp style is pair_style eam/alloy/omp
Step PotEng Enthalpy Press Lx Ly Lz Volume Pxx Pyy Pzz Pxy Pxz Pyz Fmax
5270     -1437310   -1427874.4    4338.3067    149.45993    129.42364    180.14494    3484660.2   -159.03288     33.61131    13140.342 1.2391173e-08 -2.5391473e-08    34.010259   0.10909585
Loop time of 26.0068 on 32 procs for 191 steps with 324000 atoms

Minimization stats:
  Stopping criterion = linesearch alpha is zero
  Energy initial, next-to-last, final =
  Force two-norm initial, final = 17.2401 0.00205628
  Force max component initial, final = 0.109096 9.18374e-06
  Final line search alpha, max atom move = 0.00195312 1.7937e-08
  Iterations, force evaluations = 191 399

        fix             3 all box/relax x 0.0 y 0.0
        min_style       cg
        minimize        0.0 1e-6 10000 10000
Last active /omp style is pair_style eam/alloy/omp
Step PotEng Enthalpy Press Lx Ly Lz Volume Pxx Pyy Pzz Pxy Pxz Pyz Fmax
5461   -1437482.6   -1443009.9   -2531.9837    149.45993    129.42364    180.81282    3497579.4   -3878.0179    -3715.781   -2.1522806 4.8484469e-11 -9.5823226e-11   0.21062271 9.1837382e-06
Loop time of 3.59667 on 32 procs for 17 steps with 324000 atoms

Minimization stats:
  Stopping criterion = linesearch alpha is zero
  Energy initial, next-to-last, final =
  Force two-norm initial, final = 11681.4 0.538553
  Force max component initial, final = 8434.51 0.214314
  Final line search alpha, max atom move = 3.13726e-08 6.7236e-09
  Iterations, force evaluations = 17 53

        unfix           3
        next loopvar
    jump SELF loop1
    variable loopvar loop 5
        min_style       cg
        minimize        0.0 1e-6 10000 10000
Last active /omp style is pair_style eam/alloy/omp
Step PotEng Enthalpy Press Lx Ly Lz Volume Pxx Pyy Pzz Pxy Pxz Pyz Fmax
5478   -1437489.6   -1436300.6    545.56583    149.32673    129.31872    180.81456      3491663  0.098616288 -0.036864478    1636.6357 5.3874521e-11 -1.619496e-10    -28.32114 0.0054086827
Loop time of 24.4887 on 32 procs for 182 steps with 324000 atoms

Minimization stats:
  Stopping criterion = linesearch alpha is zero
  Energy initial, next-to-last, final =
  Force two-norm initial, final = 0.487536 0.000871699
  Force max component initial, final = 0.00540868 5.46359e-06
  Final line search alpha, max atom move = 0.015625 8.53686e-08
  Iterations, force evaluations = 182 375

        fix             3 all box/relax x 0.0 y 0.0
        min_style       cg
        minimize        0.0 1e-6 10000 10000
Last active /omp style is pair_style eam/alloy/omp
Step PotEng Enthalpy Press Lx Ly Lz Volume Pxx Pyy Pzz Pxy Pxz Pyz Fmax
5660   -1437490.5   -1438158.8   -306.51785    149.32673    129.31872    180.89885    3493290.9   -470.45512   -444.86202   -4.2364274 -4.2665006e-11 3.8871692e-11  -0.68396522 5.463588e-06
Loop time of 1.91516 on 32 procs for 4 steps with 324000 atoms

Minimization stats:
  Stopping criterion = linesearch alpha is zero
  Energy initial, next-to-last, final =
  Force two-norm initial, final = 1411.07 0.199444
  Force max component initial, final = 1025.27 0.132598
  Final line search alpha, max atom move = 2.8603e-07 3.79269e-08
  Iterations, force evaluations = 4 28

        unfix           3
        next loopvar
    jump SELF loop1
    variable loopvar loop 5
        min_style       cg
        minimize        0.0 1e-6 10000 10000
Last active /omp style is pair_style eam/alloy/omp
Step PotEng Enthalpy Press Lx Ly Lz Volume Pxx Pyy Pzz Pxy Pxz Pyz Fmax
5664   -1437490.6   -1437349.1    64.901441    149.31069    129.30647    180.89885    3492584.7  -0.06084925 -0.056949952    194.82212 -8.1266345e-11 1.1111051e-10   -5.2069255 0.00093892187
Loop time of 7.04973 on 32 procs for 46 steps with 324000 atoms

Minimization stats:
  Stopping criterion = linesearch alpha is zero
  Energy initial, next-to-last, final =
  Force two-norm initial, final = 0.0824329 0.00133047
  Force max component initial, final = 0.000938922 9.32197e-06
  Final line search alpha, max atom move = 0.00390625 3.6414e-08
  Iterations, force evaluations = 46 107

        fix             3 all box/relax x 0.0 y 0.0
        min_style       cg
        minimize        0.0 1e-6 10000 10000
Last active /omp style is pair_style eam/alloy/omp
Step PotEng Enthalpy Press Lx Ly Lz Volume Pxx Pyy Pzz Pxy Pxz Pyz Fmax
5710   -1437490.6   -1437572.5   -37.591417    149.31069    129.30647    180.90905    3492781.7   -57.046326   -54.733297  -0.99462784 -3.2084902e-11 5.4104975e-11   -2.7584484 9.3219719e-06
Loop time of 1.72048 on 32 procs for 4 steps with 324000 atoms

Minimization stats:
  Stopping criterion = linesearch alpha is zero
  Energy initial, next-to-last, final =
  Force two-norm initial, final = 172.336 0.0110079
  Force max component initial, final = 124.355 0.00436817
  Final line search alpha, max atom move = 5.48142e-05 2.39438e-07
  Iterations, force evaluations = 4 25

        unfix           3
        next loopvar
    jump SELF loop1
    variable loopvar loop 5
        min_style       cg
        minimize        0.0 1e-6 10000 10000
Last active /omp style is pair_style eam/alloy/omp
Step PotEng Enthalpy Press Lx Ly Lz Volume Pxx Pyy Pzz Pxy Pxz Pyz Fmax
5714   -1437490.6   -1437473.7    7.7521421    149.30876    129.30495    180.90905    3492695.8 -0.0020038645 -0.00023207243    23.258662 -4.8291508e-11 5.2893804e-11   -3.1657659 0.00011440051
Loop time of 7.62453 on 32 procs for 52 steps with 324000 atoms

Minimization stats:
  Stopping criterion = linesearch alpha is zero
  Energy initial, next-to-last, final =
  Force two-norm initial, final = 0.0100914 0.00120136
  Force max component initial, final = 0.000114401 1.02908e-05
  Final line search alpha, max atom move = 0.0078125 8.03965e-08
  Iterations, force evaluations = 52 116

        fix             3 all box/relax x 0.0 y 0.0
        min_style       cg
        minimize        0.0 1e-6 10000 10000
Last active /omp style is pair_style eam/alloy/omp
Step PotEng Enthalpy Press Lx Ly Lz Volume Pxx Pyy Pzz Pxy Pxz Pyz Fmax
5766   -1437490.6   -1437500.6   -4.6039373    149.30876    129.30495    180.91029    3492719.6   -6.9217213   -6.5562093  -0.33388131 3.4892463e-10 -2.4767482e-10   -2.7807545 1.0290752e-05
Loop time of 1.52041 on 32 procs for 3 steps with 324000 atoms

Minimization stats:
  Stopping criterion = linesearch alpha is zero
  Energy initial, next-to-last, final =
  Force two-norm initial, final = 20.7835 0.0716689
  Force max component initial, final = 15.0891 0.0597256
  Final line search alpha, max atom move = 1.42656e-06 8.5202e-08
  Iterations, force evaluations = 3 22

        unfix           3
        next loopvar
    jump SELF loop1

# center the box around the origin
variable        size_x equal lx/2
variable        size_y equal ly/2
variable        size_z equal lz/2
change_box      all x final -74.6542639229116 74.6542639229116 y final -64.6523857901041 64.6523857901041 z final -90.455143551096 90.455143551096 remap
  orthogonal box = (-74.6543 -60.2049 3.77907) to (74.6543 69.0999 184.726)
  orthogonal box = (-74.6543 -64.6524 3.76097) to (74.6543 64.6524 184.744)
  orthogonal box = (-74.6543 -64.6524 -90.4732) to (74.6543 64.6524 90.4732)

write_data      min.data
Last active /omp style is pair_style eam/alloy/omp
clear
package omp 0
# sf datapoints

label loop2
    variable loopvar loop 100
        log             1.log
